
#======================================================================
# CRYSTAL DATA
#----------------------------------------------------------------------
data_VESTA_phase_1

_chemical_name_common                  'Plumbene'
_cell_length_a                         25.980000
_cell_length_b                         519.599976
_cell_length_c                         5.000000
_cell_angle_alpha                      90.000000
_cell_angle_beta                       90.000000
_cell_angle_gamma                      120.000008
_cell_volume                           58453.277025
_space_group_name_H-M_alt              'P 1'
_space_group_IT_number                 1

loop_
_space_group_symop_operation_xyz
   'x, y, z'
   'x, y+0.01, z'
   'x, y+0.02, z'
   'x, y+0.03, z'
   'x, y+0.04, z'
   'x, y+0.05, z'
   'x, y+0.06, z'
   'x, y+0.07, z'
   'x, y+0.08, z'
   'x, y+0.09, z'
   'x, y+0.1, z'
   'x, y+0.11, z'
   'x, y+0.12, z'
   'x, y+0.13, z'
   'x, y+0.14, z'
   'x, y+0.15, z'
   'x, y+0.16, z'
   'x, y+0.17, z'
   'x, y+0.18, z'
   'x, y+0.19, z'
   'x, y+0.2, z'
   'x, y+0.21, z'
   'x, y+0.22, z'
   'x, y+0.23, z'
   'x, y+0.24, z'
   'x, y+1/4, z'
   'x, y+0.26, z'
   'x, y+0.27, z'
   'x, y+0.28, z'
   'x, y+0.29, z'
   'x, y+0.3, z'
   'x, y+0.31, z'
   'x, y+0.32, z'
   'x, y+0.33, z'
   'x, y+0.34, z'
   'x, y+0.35, z'
   'x, y+0.36, z'
   'x, y+0.37, z'
   'x, y+0.38, z'
   'x, y+0.39, z'
   'x, y+0.4, z'
   'x, y+0.41, z'
   'x, y+0.42, z'
   'x, y+0.43, z'
   'x, y+0.44, z'
   'x, y+0.45, z'
   'x, y+0.46, z'
   'x, y+0.47, z'
   'x, y+0.48, z'
   'x, y+0.49, z'
   'x, y+1/2, z'
   'x, y+0.51, z'
   'x, y+0.52, z'
   'x, y+0.53, z'
   'x, y+0.54, z'
   'x, y+0.55, z'
   'x, y+0.56, z'
   'x, y+0.57, z'
   'x, y+0.58, z'
   'x, y+0.59, z'
   'x, y+0.6, z'
   'x, y+0.61, z'
   'x, y+0.62, z'
   'x, y+0.63, z'
   'x, y+0.64, z'
   'x, y+0.65, z'
   'x, y+0.66, z'
   'x, y+0.67, z'
   'x, y+0.68, z'
   'x, y+0.69, z'
   'x, y+0.7, z'
   'x, y+0.71, z'
   'x, y+0.72, z'
   'x, y+0.73, z'
   'x, y+0.74, z'
   'x, y+3/4, z'
   'x, y+0.76, z'
   'x, y+0.77, z'
   'x, y+0.78, z'
   'x, y+0.79, z'
   'x, y+0.8, z'
   'x, y+0.81, z'
   'x, y+0.82, z'
   'x, y+0.83, z'
   'x, y+0.84, z'
   'x, y+0.85, z'
   'x, y+0.86, z'
   'x, y+0.87, z'
   'x, y+0.88, z'
   'x, y+0.89, z'
   'x, y+0.9, z'
   'x, y+0.91, z'
   'x, y+0.92, z'
   'x, y+0.93, z'
   'x, y+0.94, z'
   'x, y+0.95, z'
   'x, y+0.96, z'
   'x, y+0.97, z'
   'x, y+0.98, z'
   'x, y+0.99, z'
   'x+0.2, y, z'
   'x+0.2, y+0.01, z'
   'x+0.2, y+0.02, z'
   'x+0.2, y+0.03, z'
   'x+0.2, y+0.04, z'
   'x+0.2, y+0.05, z'
   'x+0.2, y+0.06, z'
   'x+0.2, y+0.07, z'
   'x+0.2, y+0.08, z'
   'x+0.2, y+0.09, z'
   'x+0.2, y+0.1, z'
   'x+0.2, y+0.11, z'
   'x+0.2, y+0.12, z'
   'x+0.2, y+0.13, z'
   'x+0.2, y+0.14, z'
   'x+0.2, y+0.15, z'
   'x+0.2, y+0.16, z'
   'x+0.2, y+0.17, z'
   'x+0.2, y+0.18, z'
   'x+0.2, y+0.19, z'
   'x+0.2, y+0.2, z'
   'x+0.2, y+0.21, z'
   'x+0.2, y+0.22, z'
   'x+0.2, y+0.23, z'
   'x+0.2, y+0.24, z'
   'x+0.2, y+1/4, z'
   'x+0.2, y+0.26, z'
   'x+0.2, y+0.27, z'
   'x+0.2, y+0.28, z'
   'x+0.2, y+0.29, z'
   'x+0.2, y+0.3, z'
   'x+0.2, y+0.31, z'
   'x+0.2, y+0.32, z'
   'x+0.2, y+0.33, z'
   'x+0.2, y+0.34, z'
   'x+0.2, y+0.35, z'
   'x+0.2, y+0.36, z'
   'x+0.2, y+0.37, z'
   'x+0.2, y+0.38, z'
   'x+0.2, y+0.39, z'
   'x+0.2, y+0.4, z'
   'x+0.2, y+0.41, z'
   'x+0.2, y+0.42, z'
   'x+0.2, y+0.43, z'
   'x+0.2, y+0.44, z'
   'x+0.2, y+0.45, z'
   'x+0.2, y+0.46, z'
   'x+0.2, y+0.47, z'
   'x+0.2, y+0.48, z'
   'x+0.2, y+0.49, z'
   'x+0.2, y+1/2, z'
   'x+0.2, y+0.51, z'
   'x+0.2, y+0.52, z'
   'x+0.2, y+0.53, z'
   'x+0.2, y+0.54, z'
   'x+0.2, y+0.55, z'
   'x+0.2, y+0.56, z'
   'x+0.2, y+0.57, z'
   'x+0.2, y+0.58, z'
   'x+0.2, y+0.59, z'
   'x+0.2, y+0.6, z'
   'x+0.2, y+0.61, z'
   'x+0.2, y+0.62, z'
   'x+0.2, y+0.63, z'
   'x+0.2, y+0.64, z'
   'x+0.2, y+0.65, z'
   'x+0.2, y+0.66, z'
   'x+0.2, y+0.67, z'
   'x+0.2, y+0.68, z'
   'x+0.2, y+0.69, z'
   'x+0.2, y+0.7, z'
   'x+0.2, y+0.71, z'
   'x+0.2, y+0.72, z'
   'x+0.2, y+0.73, z'
   'x+0.2, y+0.74, z'
   'x+0.2, y+3/4, z'
   'x+0.2, y+0.76, z'
   'x+0.2, y+0.77, z'
   'x+0.2, y+0.78, z'
   'x+0.2, y+0.79, z'
   'x+0.2, y+0.8, z'
   'x+0.2, y+0.81, z'
   'x+0.2, y+0.82, z'
   'x+0.2, y+0.83, z'
   'x+0.2, y+0.84, z'
   'x+0.2, y+0.85, z'
   'x+0.2, y+0.86, z'
   'x+0.2, y+0.87, z'
   'x+0.2, y+0.88, z'
   'x+0.2, y+0.89, z'
   'x+0.2, y+0.9, z'
   'x+0.2, y+0.91, z'
   'x+0.2, y+0.92, z'
   'x+0.2, y+0.93, z'
   'x+0.2, y+0.94, z'
   'x+0.2, y+0.95, z'
   'x+0.2, y+0.96, z'
   'x+0.2, y+0.97, z'
   'x+0.2, y+0.98, z'
   'x+0.2, y+0.99, z'
   'x+0.4, y, z'
   'x+0.4, y+0.01, z'
   'x+0.4, y+0.02, z'
   'x+0.4, y+0.03, z'
   'x+0.4, y+0.04, z'
   'x+0.4, y+0.05, z'
   'x+0.4, y+0.06, z'
   'x+0.4, y+0.07, z'
   'x+0.4, y+0.08, z'
   'x+0.4, y+0.09, z'
   'x+0.4, y+0.1, z'
   'x+0.4, y+0.11, z'
   'x+0.4, y+0.12, z'
   'x+0.4, y+0.13, z'
   'x+0.4, y+0.14, z'
   'x+0.4, y+0.15, z'
   'x+0.4, y+0.16, z'
   'x+0.4, y+0.17, z'
   'x+0.4, y+0.18, z'
   'x+0.4, y+0.19, z'
   'x+0.4, y+0.2, z'
   'x+0.4, y+0.21, z'
   'x+0.4, y+0.22, z'
   'x+0.4, y+0.23, z'
   'x+0.4, y+0.24, z'
   'x+0.4, y+1/4, z'
   'x+0.4, y+0.26, z'
   'x+0.4, y+0.27, z'
   'x+0.4, y+0.28, z'
   'x+0.4, y+0.29, z'
   'x+0.4, y+0.3, z'
   'x+0.4, y+0.31, z'
   'x+0.4, y+0.32, z'
   'x+0.4, y+0.33, z'
   'x+0.4, y+0.34, z'
   'x+0.4, y+0.35, z'
   'x+0.4, y+0.36, z'
   'x+0.4, y+0.37, z'
   'x+0.4, y+0.38, z'
   'x+0.4, y+0.39, z'
   'x+0.4, y+0.4, z'
   'x+0.4, y+0.41, z'
   'x+0.4, y+0.42, z'
   'x+0.4, y+0.43, z'
   'x+0.4, y+0.44, z'
   'x+0.4, y+0.45, z'
   'x+0.4, y+0.46, z'
   'x+0.4, y+0.47, z'
   'x+0.4, y+0.48, z'
   'x+0.4, y+0.49, z'
   'x+0.4, y+1/2, z'
   'x+0.4, y+0.51, z'
   'x+0.4, y+0.52, z'
   'x+0.4, y+0.53, z'
   'x+0.4, y+0.54, z'
   'x+0.4, y+0.55, z'
   'x+0.4, y+0.56, z'
   'x+0.4, y+0.57, z'
   'x+0.4, y+0.58, z'
   'x+0.4, y+0.59, z'
   'x+0.4, y+0.6, z'
   'x+0.4, y+0.61, z'
   'x+0.4, y+0.62, z'
   'x+0.4, y+0.63, z'
   'x+0.4, y+0.64, z'
   'x+0.4, y+0.65, z'
   'x+0.4, y+0.66, z'
   'x+0.4, y+0.67, z'
   'x+0.4, y+0.68, z'
   'x+0.4, y+0.69, z'
   'x+0.4, y+0.7, z'
   'x+0.4, y+0.71, z'
   'x+0.4, y+0.72, z'
   'x+0.4, y+0.73, z'
   'x+0.4, y+0.74, z'
   'x+0.4, y+3/4, z'
   'x+0.4, y+0.76, z'
   'x+0.4, y+0.77, z'
   'x+0.4, y+0.78, z'
   'x+0.4, y+0.79, z'
   'x+0.4, y+0.8, z'
   'x+0.4, y+0.81, z'
   'x+0.4, y+0.82, z'
   'x+0.4, y+0.83, z'
   'x+0.4, y+0.84, z'
   'x+0.4, y+0.85, z'
   'x+0.4, y+0.86, z'
   'x+0.4, y+0.87, z'
   'x+0.4, y+0.88, z'
   'x+0.4, y+0.89, z'
   'x+0.4, y+0.9, z'
   'x+0.4, y+0.91, z'
   'x+0.4, y+0.92, z'
   'x+0.4, y+0.93, z'
   'x+0.4, y+0.94, z'
   'x+0.4, y+0.95, z'
   'x+0.4, y+0.96, z'
   'x+0.4, y+0.97, z'
   'x+0.4, y+0.98, z'
   'x+0.4, y+0.99, z'
   'x+0.6, y, z'
   'x+0.6, y+0.01, z'
   'x+0.6, y+0.02, z'
   'x+0.6, y+0.03, z'
   'x+0.6, y+0.04, z'
   'x+0.6, y+0.05, z'
   'x+0.6, y+0.06, z'
   'x+0.6, y+0.07, z'
   'x+0.6, y+0.08, z'
   'x+0.6, y+0.09, z'
   'x+0.6, y+0.1, z'
   'x+0.6, y+0.11, z'
   'x+0.6, y+0.12, z'
   'x+0.6, y+0.13, z'
   'x+0.6, y+0.14, z'
   'x+0.6, y+0.15, z'
   'x+0.6, y+0.16, z'
   'x+0.6, y+0.17, z'
   'x+0.6, y+0.18, z'
   'x+0.6, y+0.19, z'
   'x+0.6, y+0.2, z'
   'x+0.6, y+0.21, z'
   'x+0.6, y+0.22, z'
   'x+0.6, y+0.23, z'
   'x+0.6, y+0.24, z'
   'x+0.6, y+1/4, z'
   'x+0.6, y+0.26, z'
   'x+0.6, y+0.27, z'
   'x+0.6, y+0.28, z'
   'x+0.6, y+0.29, z'
   'x+0.6, y+0.3, z'
   'x+0.6, y+0.31, z'
   'x+0.6, y+0.32, z'
   'x+0.6, y+0.33, z'
   'x+0.6, y+0.34, z'
   'x+0.6, y+0.35, z'
   'x+0.6, y+0.36, z'
   'x+0.6, y+0.37, z'
   'x+0.6, y+0.38, z'
   'x+0.6, y+0.39, z'
   'x+0.6, y+0.4, z'
   'x+0.6, y+0.41, z'
   'x+0.6, y+0.42, z'
   'x+0.6, y+0.43, z'
   'x+0.6, y+0.44, z'
   'x+0.6, y+0.45, z'
   'x+0.6, y+0.46, z'
   'x+0.6, y+0.47, z'
   'x+0.6, y+0.48, z'
   'x+0.6, y+0.49, z'
   'x+0.6, y+1/2, z'
   'x+0.6, y+0.51, z'
   'x+0.6, y+0.52, z'
   'x+0.6, y+0.53, z'
   'x+0.6, y+0.54, z'
   'x+0.6, y+0.55, z'
   'x+0.6, y+0.56, z'
   'x+0.6, y+0.57, z'
   'x+0.6, y+0.58, z'
   'x+0.6, y+0.59, z'
   'x+0.6, y+0.6, z'
   'x+0.6, y+0.61, z'
   'x+0.6, y+0.62, z'
   'x+0.6, y+0.63, z'
   'x+0.6, y+0.64, z'
   'x+0.6, y+0.65, z'
   'x+0.6, y+0.66, z'
   'x+0.6, y+0.67, z'
   'x+0.6, y+0.68, z'
   'x+0.6, y+0.69, z'
   'x+0.6, y+0.7, z'
   'x+0.6, y+0.71, z'
   'x+0.6, y+0.72, z'
   'x+0.6, y+0.73, z'
   'x+0.6, y+0.74, z'
   'x+0.6, y+3/4, z'
   'x+0.6, y+0.76, z'
   'x+0.6, y+0.77, z'
   'x+0.6, y+0.78, z'
   'x+0.6, y+0.79, z'
   'x+0.6, y+0.8, z'
   'x+0.6, y+0.81, z'
   'x+0.6, y+0.82, z'
   'x+0.6, y+0.83, z'
   'x+0.6, y+0.84, z'
   'x+0.6, y+0.85, z'
   'x+0.6, y+0.86, z'
   'x+0.6, y+0.87, z'
   'x+0.6, y+0.88, z'
   'x+0.6, y+0.89, z'
   'x+0.6, y+0.9, z'
   'x+0.6, y+0.91, z'
   'x+0.6, y+0.92, z'
   'x+0.6, y+0.93, z'
   'x+0.6, y+0.94, z'
   'x+0.6, y+0.95, z'
   'x+0.6, y+0.96, z'
   'x+0.6, y+0.97, z'
   'x+0.6, y+0.98, z'
   'x+0.6, y+0.99, z'
   'x+0.8, y, z'
   'x+0.8, y+0.01, z'
   'x+0.8, y+0.02, z'
   'x+0.8, y+0.03, z'
   'x+0.8, y+0.04, z'
   'x+0.8, y+0.05, z'
   'x+0.8, y+0.06, z'
   'x+0.8, y+0.07, z'
   'x+0.8, y+0.08, z'
   'x+0.8, y+0.09, z'
   'x+0.8, y+0.1, z'
   'x+0.8, y+0.11, z'
   'x+0.8, y+0.12, z'
   'x+0.8, y+0.13, z'
   'x+0.8, y+0.14, z'
   'x+0.8, y+0.15, z'
   'x+0.8, y+0.16, z'
   'x+0.8, y+0.17, z'
   'x+0.8, y+0.18, z'
   'x+0.8, y+0.19, z'
   'x+0.8, y+0.2, z'
   'x+0.8, y+0.21, z'
   'x+0.8, y+0.22, z'
   'x+0.8, y+0.23, z'
   'x+0.8, y+0.24, z'
   'x+0.8, y+1/4, z'
   'x+0.8, y+0.26, z'
   'x+0.8, y+0.27, z'
   'x+0.8, y+0.28, z'
   'x+0.8, y+0.29, z'
   'x+0.8, y+0.3, z'
   'x+0.8, y+0.31, z'
   'x+0.8, y+0.32, z'
   'x+0.8, y+0.33, z'
   'x+0.8, y+0.34, z'
   'x+0.8, y+0.35, z'
   'x+0.8, y+0.36, z'
   'x+0.8, y+0.37, z'
   'x+0.8, y+0.38, z'
   'x+0.8, y+0.39, z'
   'x+0.8, y+0.4, z'
   'x+0.8, y+0.41, z'
   'x+0.8, y+0.42, z'
   'x+0.8, y+0.43, z'
   'x+0.8, y+0.44, z'
   'x+0.8, y+0.45, z'
   'x+0.8, y+0.46, z'
   'x+0.8, y+0.47, z'
   'x+0.8, y+0.48, z'
   'x+0.8, y+0.49, z'
   'x+0.8, y+1/2, z'
   'x+0.8, y+0.51, z'
   'x+0.8, y+0.52, z'
   'x+0.8, y+0.53, z'
   'x+0.8, y+0.54, z'
   'x+0.8, y+0.55, z'
   'x+0.8, y+0.56, z'
   'x+0.8, y+0.57, z'
   'x+0.8, y+0.58, z'
   'x+0.8, y+0.59, z'
   'x+0.8, y+0.6, z'
   'x+0.8, y+0.61, z'
   'x+0.8, y+0.62, z'
   'x+0.8, y+0.63, z'
   'x+0.8, y+0.64, z'
   'x+0.8, y+0.65, z'
   'x+0.8, y+0.66, z'
   'x+0.8, y+0.67, z'
   'x+0.8, y+0.68, z'
   'x+0.8, y+0.69, z'
   'x+0.8, y+0.7, z'
   'x+0.8, y+0.71, z'
   'x+0.8, y+0.72, z'
   'x+0.8, y+0.73, z'
   'x+0.8, y+0.74, z'
   'x+0.8, y+3/4, z'
   'x+0.8, y+0.76, z'
   'x+0.8, y+0.77, z'
   'x+0.8, y+0.78, z'
   'x+0.8, y+0.79, z'
   'x+0.8, y+0.8, z'
   'x+0.8, y+0.81, z'
   'x+0.8, y+0.82, z'
   'x+0.8, y+0.83, z'
   'x+0.8, y+0.84, z'
   'x+0.8, y+0.85, z'
   'x+0.8, y+0.86, z'
   'x+0.8, y+0.87, z'
   'x+0.8, y+0.88, z'
   'x+0.8, y+0.89, z'
   'x+0.8, y+0.9, z'
   'x+0.8, y+0.91, z'
   'x+0.8, y+0.92, z'
   'x+0.8, y+0.93, z'
   'x+0.8, y+0.94, z'
   'x+0.8, y+0.95, z'
   'x+0.8, y+0.96, z'
   'x+0.8, y+0.97, z'
   'x+0.8, y+0.98, z'
   'x+0.8, y+0.99, z'

loop_
   _atom_site_label
   _atom_site_occupancy
   _atom_site_fract_x
   _atom_site_fract_y
   _atom_site_fract_z
   _atom_site_adp_type
   _atom_site_B_iso_or_equiv
   _atom_site_type_symbol
   Pb         1.0     0.000000     0.000000     0.250000    Biso  1.000000 Pb
   Pb         1.0     0.066667     0.006667     0.250000    Biso  1.000000 Pb
