
#======================================================================
# CRYSTAL DATA
#----------------------------------------------------------------------
data_VESTA_phase_1

_chemical_name_common                  'Plumbene\(0\0\1)'
_cell_length_a                         44.998699
_cell_length_b                         51.959999
_cell_length_c                         20.000000
_cell_angle_alpha                      90.000000
_cell_angle_beta                       90.000000
_cell_angle_gamma                      90.000000
_cell_volume                           46762.647372
_space_group_name_H-M_alt              'P 1'
_space_group_IT_number                 1

loop_
_space_group_symop_operation_xyz
   'x, y, z'

loop_
   _atom_site_label
   _atom_site_occupancy
   _atom_site_fract_x
   _atom_site_fract_y
   _atom_site_fract_z
   _atom_site_adp_type
   _atom_site_U_iso_or_equiv
   _atom_site_type_symbol
   Pb1        1.0     0.000000     0.000000     0.000000    Uiso  0.012670 Pb
   Pb2        1.0     0.000000     0.500000     0.000000    Uiso  0.012670 Pb
   Pb3        1.0     0.500000     0.250000     0.000000    Uiso  0.012670 Pb
   Pb4        1.0     0.500000     0.750000     0.000000    Uiso  0.012670 Pb
   Pb5        1.0     0.033330     0.050000     0.000000    Uiso  0.012670 Pb
   Pb6        1.0     0.033330     0.550000     0.000000    Uiso  0.012670 Pb
   Pb7        1.0     0.533330     0.300000     0.000000    Uiso  0.012670 Pb
   Pb8        1.0     0.533330     0.800000     0.000000    Uiso  0.012670 Pb
   Pb9        1.0     0.100000     0.450000     0.000000    Uiso  0.012670 Pb
   Pb10       1.0     0.100000     0.950000     0.000000    Uiso  0.012670 Pb
   Pb11       1.0     0.600000     0.200000     0.000000    Uiso  0.012670 Pb
   Pb12       1.0     0.600000     0.700000     0.000000    Uiso  0.012670 Pb
   Pb13       1.0     0.133330     -0.000000     0.000000    Uiso  0.012670 Pb
   Pb14       1.0     0.133330     0.500000     0.000000    Uiso  0.012670 Pb
   Pb15       1.0     0.633330     0.250000     0.000000    Uiso  0.012670 Pb
   Pb16       1.0     0.633330     0.750000     0.000000    Uiso  0.012670 Pb
   Pb17       1.0     0.200000     0.400000     0.000000    Uiso  0.012670 Pb
   Pb18       1.0     0.200000     0.900000     0.000000    Uiso  0.012670 Pb
   Pb19       1.0     0.700000     0.150000     0.000000    Uiso  0.012670 Pb
   Pb20       1.0     0.700000     0.650000     0.000000    Uiso  0.012670 Pb
   Pb21       1.0     0.233330     0.450000     0.000000    Uiso  0.012670 Pb
   Pb22       1.0     0.233330     0.950000     0.000000    Uiso  0.012670 Pb
   Pb23       1.0     0.733330     0.200000     0.000000    Uiso  0.012670 Pb
   Pb24       1.0     0.733330     0.700000     0.000000    Uiso  0.012670 Pb
   Pb25       1.0     0.300000     0.350000     0.000000    Uiso  0.012670 Pb
   Pb26       1.0     0.300000     0.850000     0.000000    Uiso  0.012670 Pb
   Pb27       1.0     0.800000     0.100000     0.000000    Uiso  0.012670 Pb
   Pb28       1.0     0.800000     0.600000     0.000000    Uiso  0.012670 Pb
   Pb29       1.0     0.333330     0.400000     0.000000    Uiso  0.012670 Pb
   Pb30       1.0     0.333330     0.900000     0.000000    Uiso  0.012670 Pb
   Pb31       1.0     0.833330     0.150000     0.000000    Uiso  0.012670 Pb
   Pb32       1.0     0.833330     0.650000     0.000000    Uiso  0.012670 Pb
   Pb33       1.0     0.400000     0.300000     0.000000    Uiso  0.012670 Pb
   Pb34       1.0     0.400000     0.800000     0.000000    Uiso  0.012670 Pb
   Pb35       1.0     0.900000     0.050000     0.000000    Uiso  0.012670 Pb
   Pb36       1.0     0.900000     0.550000     0.000000    Uiso  0.012670 Pb
   Pb37       1.0     0.433330     0.350000     0.000000    Uiso  0.012670 Pb
   Pb38       1.0     0.433330     0.850000     0.000000    Uiso  0.012670 Pb
   Pb39       1.0     0.933330     0.100000     0.000000    Uiso  0.012670 Pb
   Pb40       1.0     0.933330     0.600000     0.000000    Uiso  0.012670 Pb
   Pb41       1.0     0.000000     0.100000     0.000000    Uiso  0.012670 Pb
   Pb42       1.0     0.000000     0.600000     0.000000    Uiso  0.012670 Pb
   Pb43       1.0     0.500000     0.350000     0.000000    Uiso  0.012670 Pb
   Pb44       1.0     0.500000     0.850000     0.000000    Uiso  0.012670 Pb
   Pb45       1.0     0.033330     0.150000     0.000000    Uiso  0.012670 Pb
   Pb46       1.0     0.033330     0.650000     0.000000    Uiso  0.012670 Pb
   Pb47       1.0     0.533330     0.400000     0.000000    Uiso  0.012670 Pb
   Pb48       1.0     0.533330     0.900000     0.000000    Uiso  0.012670 Pb
   Pb49       1.0     0.100000     0.050000     0.000000    Uiso  0.012670 Pb
   Pb50       1.0     0.100000     0.550000     0.000000    Uiso  0.012670 Pb
   Pb51       1.0     0.600000     0.300000     0.000000    Uiso  0.012670 Pb
   Pb52       1.0     0.600000     0.800000     0.000000    Uiso  0.012670 Pb
   Pb53       1.0     0.133330     0.100000     0.000000    Uiso  0.012670 Pb
   Pb54       1.0     0.133330     0.600000     0.000000    Uiso  0.012670 Pb
   Pb55       1.0     0.633330     0.350000     0.000000    Uiso  0.012670 Pb
   Pb56       1.0     0.633330     0.850000     0.000000    Uiso  0.012670 Pb
   Pb57       1.0     0.200000     -0.000000     0.000000    Uiso  0.012670 Pb
   Pb58       1.0     0.200000     0.500000     0.000000    Uiso  0.012670 Pb
   Pb59       1.0     0.700000     0.250000     0.000000    Uiso  0.012670 Pb
   Pb60       1.0     0.700000     0.750000     0.000000    Uiso  0.012670 Pb
   Pb61       1.0     0.233330     0.050000     0.000000    Uiso  0.012670 Pb
   Pb62       1.0     0.233330     0.550000     0.000000    Uiso  0.012670 Pb
   Pb63       1.0     0.733330     0.300000     0.000000    Uiso  0.012670 Pb
   Pb64       1.0     0.733330     0.800000     0.000000    Uiso  0.012670 Pb
   Pb65       1.0     0.300000     0.450000     0.000000    Uiso  0.012670 Pb
   Pb66       1.0     0.300000     0.950000     0.000000    Uiso  0.012670 Pb
   Pb67       1.0     0.800000     0.200000     0.000000    Uiso  0.012670 Pb
   Pb68       1.0     0.800000     0.700000     0.000000    Uiso  0.012670 Pb
   Pb69       1.0     0.333330     -0.000000     0.000000    Uiso  0.012670 Pb
   Pb70       1.0     0.333330     0.500000     0.000000    Uiso  0.012670 Pb
   Pb71       1.0     0.833330     0.250000     0.000000    Uiso  0.012670 Pb
   Pb72       1.0     0.833330     0.750000     0.000000    Uiso  0.012670 Pb
   Pb73       1.0     0.400000     0.400000     0.000000    Uiso  0.012670 Pb
   Pb74       1.0     0.400000     0.900000     0.000000    Uiso  0.012670 Pb
   Pb75       1.0     0.900000     0.150000     0.000000    Uiso  0.012670 Pb
   Pb76       1.0     0.900000     0.650000     0.000000    Uiso  0.012670 Pb
   Pb77       1.0     0.433330     0.450000     0.000000    Uiso  0.012670 Pb
   Pb78       1.0     0.433330     0.950000     0.000000    Uiso  0.012670 Pb
   Pb79       1.0     0.933330     0.200000     0.000000    Uiso  0.012670 Pb
   Pb80       1.0     0.933330     0.700000     0.000000    Uiso  0.012670 Pb
   Pb81       1.0     0.000000     0.200000     0.000000    Uiso  0.012670 Pb
   Pb82       1.0     0.000000     0.700000     0.000000    Uiso  0.012670 Pb
   Pb83       1.0     0.500000     0.450000     0.000000    Uiso  0.012670 Pb
   Pb84       1.0     0.500000     0.950000     0.000000    Uiso  0.012670 Pb
   Pb85       1.0     0.033330     0.250000     0.000000    Uiso  0.012670 Pb
   Pb86       1.0     0.033330     0.750000     0.000000    Uiso  0.012670 Pb
   Pb87       1.0     0.533330     -0.000000     0.000000    Uiso  0.012670 Pb
   Pb88       1.0     0.533330     0.500000     0.000000    Uiso  0.012670 Pb
   Pb89       1.0     0.100000     0.150000     0.000000    Uiso  0.012670 Pb
   Pb90       1.0     0.100000     0.650000     0.000000    Uiso  0.012670 Pb
   Pb91       1.0     0.600000     0.400000     0.000000    Uiso  0.012670 Pb
   Pb92       1.0     0.600000     0.900000     0.000000    Uiso  0.012670 Pb
   Pb93       1.0     0.133330     0.200000     0.000000    Uiso  0.012670 Pb
   Pb94       1.0     0.133330     0.700000     0.000000    Uiso  0.012670 Pb
   Pb95       1.0     0.633330     0.450000     0.000000    Uiso  0.012670 Pb
   Pb96       1.0     0.633330     0.950000     0.000000    Uiso  0.012670 Pb
   Pb97       1.0     0.200000     0.100000     0.000000    Uiso  0.012670 Pb
   Pb98       1.0     0.200000     0.600000     0.000000    Uiso  0.012670 Pb
   Pb99       1.0     0.700000     0.350000     0.000000    Uiso  0.012670 Pb
   Pb100      1.0     0.700000     0.850000     0.000000    Uiso  0.012670 Pb
   Pb101      1.0     0.233330     0.150000     0.000000    Uiso  0.012670 Pb
   Pb102      1.0     0.233330     0.650000     0.000000    Uiso  0.012670 Pb
   Pb103      1.0     0.733330     0.400000     0.000000    Uiso  0.012670 Pb
   Pb104      1.0     0.733330     0.900000     0.000000    Uiso  0.012670 Pb
   Pb105      1.0     0.300000     0.050000     0.000000    Uiso  0.012670 Pb
   Pb106      1.0     0.300000     0.550000     0.000000    Uiso  0.012670 Pb
   Pb107      1.0     0.800000     0.300000     0.000000    Uiso  0.012670 Pb
   Pb108      1.0     0.800000     0.800000     0.000000    Uiso  0.012670 Pb
   Pb109      1.0     0.333330     0.100000     0.000000    Uiso  0.012670 Pb
   Pb110      1.0     0.333330     0.600000     0.000000    Uiso  0.012670 Pb
   Pb111      1.0     0.833330     0.350000     0.000000    Uiso  0.012670 Pb
   Pb112      1.0     0.833330     0.850000     0.000000    Uiso  0.012670 Pb
   Pb113      1.0     0.400000     -0.000000     0.000000    Uiso  0.012670 Pb
   Pb114      1.0     0.400000     0.500000     0.000000    Uiso  0.012670 Pb
   Pb115      1.0     0.900000     0.250000     0.000000    Uiso  0.012670 Pb
   Pb116      1.0     0.900000     0.750000     0.000000    Uiso  0.012670 Pb
   Pb117      1.0     0.433330     0.050000     0.000000    Uiso  0.012670 Pb
   Pb118      1.0     0.433330     0.550000     0.000000    Uiso  0.012670 Pb
   Pb119      1.0     0.933330     0.300000     0.000000    Uiso  0.012670 Pb
   Pb120      1.0     0.933330     0.800000     0.000000    Uiso  0.012670 Pb
   Pb121      1.0     0.000000     0.300000     0.000000    Uiso  0.012670 Pb
   Pb122      1.0     0.000000     0.800000     0.000000    Uiso  0.012670 Pb
   Pb123      1.0     0.500000     0.050000     0.000000    Uiso  0.012670 Pb
   Pb124      1.0     0.500000     0.550000     0.000000    Uiso  0.012670 Pb
   Pb125      1.0     0.033330     0.350000     0.000000    Uiso  0.012670 Pb
   Pb126      1.0     0.033330     0.850000     0.000000    Uiso  0.012670 Pb
   Pb127      1.0     0.533330     0.100000     0.000000    Uiso  0.012670 Pb
   Pb128      1.0     0.533330     0.600000     0.000000    Uiso  0.012670 Pb
   Pb129      1.0     0.100000     0.250000     0.000000    Uiso  0.012670 Pb
   Pb130      1.0     0.100000     0.750000     0.000000    Uiso  0.012670 Pb
   Pb131      1.0     0.600000     -0.000000     0.000000    Uiso  0.012670 Pb
   Pb132      1.0     0.600000     0.500000     0.000000    Uiso  0.012670 Pb
   Pb133      1.0     0.133330     0.300000     0.000000    Uiso  0.012670 Pb
   Pb134      1.0     0.133330     0.800000     0.000000    Uiso  0.012670 Pb
   Pb135      1.0     0.633330     0.050000     0.000000    Uiso  0.012670 Pb
   Pb136      1.0     0.633330     0.550000     0.000000    Uiso  0.012670 Pb
   Pb137      1.0     0.200000     0.200000     0.000000    Uiso  0.012670 Pb
   Pb138      1.0     0.200000     0.700000     0.000000    Uiso  0.012670 Pb
   Pb139      1.0     0.700000     0.450000     0.000000    Uiso  0.012670 Pb
   Pb140      1.0     0.700000     0.950000     0.000000    Uiso  0.012670 Pb
   Pb141      1.0     0.233330     0.250000     0.000000    Uiso  0.012670 Pb
   Pb142      1.0     0.233330     0.750000     0.000000    Uiso  0.012670 Pb
   Pb143      1.0     0.733330     -0.000000     0.000000    Uiso  0.012670 Pb
   Pb144      1.0     0.733330     0.500000     0.000000    Uiso  0.012670 Pb
   Pb145      1.0     0.300000     0.150000     0.000000    Uiso  0.012670 Pb
   Pb146      1.0     0.300000     0.650000     0.000000    Uiso  0.012670 Pb
   Pb147      1.0     0.800000     0.400000     0.000000    Uiso  0.012670 Pb
   Pb148      1.0     0.800000     0.900000     0.000000    Uiso  0.012670 Pb
   Pb149      1.0     0.333330     0.200000     0.000000    Uiso  0.012670 Pb
   Pb150      1.0     0.333330     0.700000     0.000000    Uiso  0.012670 Pb
   Pb151      1.0     0.833330     0.450000     0.000000    Uiso  0.012670 Pb
   Pb152      1.0     0.833330     0.950000     0.000000    Uiso  0.012670 Pb
   Pb153      1.0     0.400000     0.100000     0.000000    Uiso  0.012670 Pb
   Pb154      1.0     0.400000     0.600000     0.000000    Uiso  0.012670 Pb
   Pb155      1.0     0.900000     0.350000     0.000000    Uiso  0.012670 Pb
   Pb156      1.0     0.900000     0.850000     0.000000    Uiso  0.012670 Pb
   Pb157      1.0     0.433330     0.150000     0.000000    Uiso  0.012670 Pb
   Pb158      1.0     0.433330     0.650000     0.000000    Uiso  0.012670 Pb
   Pb159      1.0     0.933330     0.400000     0.000000    Uiso  0.012670 Pb
   Pb160      1.0     0.933330     0.900000     0.000000    Uiso  0.012670 Pb
   Pb161      1.0     0.000000     0.400000     0.000000    Uiso  0.012670 Pb
   Pb162      1.0     0.000000     0.900000     0.000000    Uiso  0.012670 Pb
   Pb163      1.0     0.500000     0.150000     0.000000    Uiso  0.012670 Pb
   Pb164      1.0     0.500000     0.650000     0.000000    Uiso  0.012670 Pb
   Pb165      1.0     0.033330     0.450000     0.000000    Uiso  0.012670 Pb
   Pb166      1.0     0.033330     0.950000     0.000000    Uiso  0.012670 Pb
   Pb167      1.0     0.533330     0.200000     0.000000    Uiso  0.012670 Pb
   Pb168      1.0     0.533330     0.700000     0.000000    Uiso  0.012670 Pb
   Pb169      1.0     0.100000     0.350000     0.000000    Uiso  0.012670 Pb
   Pb170      1.0     0.100000     0.850000     0.000000    Uiso  0.012670 Pb
   Pb171      1.0     0.600000     0.100000     0.000000    Uiso  0.012670 Pb
   Pb172      1.0     0.600000     0.600000     0.000000    Uiso  0.012670 Pb
   Pb173      1.0     0.133330     0.400000     0.000000    Uiso  0.012670 Pb
   Pb174      1.0     0.133330     0.900000     0.000000    Uiso  0.012670 Pb
   Pb175      1.0     0.633330     0.150000     0.000000    Uiso  0.012670 Pb
   Pb176      1.0     0.633330     0.650000     0.000000    Uiso  0.012670 Pb
   Pb177      1.0     0.200000     0.300000     0.000000    Uiso  0.012670 Pb
   Pb178      1.0     0.200000     0.800000     0.000000    Uiso  0.012670 Pb
   Pb179      1.0     0.700000     0.050000     0.000000    Uiso  0.012670 Pb
   Pb180      1.0     0.700000     0.550000     0.000000    Uiso  0.012670 Pb
   Pb181      1.0     0.233330     0.350000     0.000000    Uiso  0.012670 Pb
   Pb182      1.0     0.233330     0.850000     0.000000    Uiso  0.012670 Pb
   Pb183      1.0     0.733330     0.100000     0.000000    Uiso  0.012670 Pb
   Pb184      1.0     0.733330     0.600000     0.000000    Uiso  0.012670 Pb
   Pb185      1.0     0.300000     0.250000     0.000000    Uiso  0.012670 Pb
   Pb186      1.0     0.300000     0.750000     0.000000    Uiso  0.012670 Pb
   Pb187      1.0     0.800000     -0.000000     0.000000    Uiso  0.012670 Pb
   Pb188      1.0     0.800000     0.500000     0.000000    Uiso  0.012670 Pb
   Pb189      1.0     0.333330     0.300000     0.000000    Uiso  0.012670 Pb
   Pb190      1.0     0.333330     0.800000     0.000000    Uiso  0.012670 Pb
   Pb191      1.0     0.833330     0.050000     0.000000    Uiso  0.012670 Pb
   Pb192      1.0     0.833330     0.550000     0.000000    Uiso  0.012670 Pb
   Pb193      1.0     0.400000     0.200000     0.000000    Uiso  0.012670 Pb
   Pb194      1.0     0.400000     0.700000     0.000000    Uiso  0.012670 Pb
   Pb195      1.0     0.900000     0.450000     0.000000    Uiso  0.012670 Pb
   Pb196      1.0     0.900000     0.950000     0.000000    Uiso  0.012670 Pb
   Pb197      1.0     0.433330     0.250000     0.000000    Uiso  0.012670 Pb
   Pb198      1.0     0.433330     0.750000     0.000000    Uiso  0.012670 Pb
   Pb199      1.0     0.933330     -0.000000     0.000000    Uiso  0.012670 Pb
   Pb200      1.0     0.933330     0.500000     0.000000    Uiso  0.012670 Pb
