
#======================================================================
# CRYSTAL DATA
#----------------------------------------------------------------------
data_VESTA_phase_1

_chemical_name_common                  'Plumbene'
_cell_length_a                         15.588000
_cell_length_b                         15.588000
_cell_length_c                         5.000000
_cell_angle_alpha                      90.000000
_cell_angle_beta                       90.000000
_cell_angle_gamma                      120.000000
_cell_volume                           1052.159175
_space_group_name_H-M_alt              'P 1'
_space_group_IT_number                 1

loop_
_space_group_symop_operation_xyz
   'x, y, z'
   'x, y+1/3, z'
   'x, y+2/3, z'
   'x+1/3, y, z'
   'x+1/3, y+1/3, z'
   'x+1/3, y+2/3, z'
   'x+2/3, y, z'
   'x+2/3, y+1/3, z'
   'x+2/3, y+2/3, z'

loop_
   _atom_site_label
   _atom_site_occupancy
   _atom_site_fract_x
   _atom_site_fract_y
   _atom_site_fract_z
   _atom_site_adp_type
   _atom_site_B_iso_or_equiv
   _atom_site_type_symbol
   Pb         1.0     0.000000     0.000000     0.250000    Biso  1.000000 Pb
   Pb         1.0     0.111111     0.222222     0.250000    Biso  1.000000 Pb
